$ 4 HEX8 elements along X axis (1x1 cross section, length 4)
$ Node temperature varies linearly along X: 0 -> 4
$ Element average temperatures: 0.5, 1.5, 2.5, 3.5
$ Threshold [1.0, 3.0] should keep middle two elements
BEGIN BULK
GRID,1,,0.,0.,0.
GRID,2,,0.,0.,1.
GRID,3,,0.,1.,0.
GRID,4,,0.,1.,1.
GRID,5,,1.,0.,0.
GRID,6,,1.,0.,1.
GRID,7,,1.,1.,0.
GRID,8,,1.,1.,1.
GRID,9,,2.,0.,0.
GRID,10,,2.,0.,1.
GRID,11,,2.,1.,0.
GRID,12,,2.,1.,1.
GRID,13,,3.,0.,0.
GRID,14,,3.,0.,1.
GRID,15,,3.,1.,0.
GRID,16,,3.,1.,1.
GRID,17,,4.,0.,0.
GRID,18,,4.,0.,1.
GRID,19,,4.,1.,0.
GRID,20,,4.,1.,1.
PSOLID,1,1
MAT1,1,2.1+5,,0.3
CHEXA,1001,1,1,5,7,3,2,6,8,4
CHEXA,1002,1,5,9,11,7,6,10,12,8
CHEXA,1003,1,9,13,15,11,10,14,16,12
CHEXA,1004,1,13,17,19,15,14,18,20,16
ENDDATA
