$ 最小 HEX8 测试模型：单个 1×1×1 立方体（CHEXA 实体单元）
$ 用途：在 FEModelViewer 主界面验证等值面 / 裁剪 / 切片功能
$ 配套结果文件：hex_cube.unv（节点温度沿 Z 方向 0→1 线性渐变）
BEGIN BULK
GRID,1,,0.,0.,0.
GRID,2,,1.,0.,0.
GRID,3,,1.,1.,0.
GRID,4,,0.,1.,0.
GRID,5,,0.,0.,1.
GRID,6,,1.,0.,1.
GRID,7,,1.,1.,1.
GRID,8,,0.,1.,1.
PSOLID,1,1
MAT1,1,2.1+5,,0.3
CHEXA,1001,1,1,2,3,4,5,6,7,8
ENDDATA
